
#######################################################################
#
#                 Cambridge Crystallographic Data Centre
#                                CCDC 
#
#######################################################################
#
# If this CIF has been generated from an entry in the Cambridge 
# Structural Database, then it will include bibliographic, chemical, 
# crystal, experimental, refinement or atomic coordinate data resulting 
# from the CCDC's data processing and validation procedures.
#
#######################################################################

data_NICOAM13
_symmetry_cell_setting           monoclinic
_symmetry_space_group_name_H-M   'P 21/c'
_symmetry_Int_Tables_number      14
_space_group_name_Hall           '-P 2ybc'
loop_
_symmetry_equiv_pos_site_id
_symmetry_equiv_pos_as_xyz
1 x,y,z
2 -x,1/2+y,1/2-z
3 -x,-y,-z
4 x,1/2-y,1/2+z
_cell_length_a                   3.88266(15)
_cell_length_b                   15.6453(5)
_cell_length_c                   9.3836(3)
_cell_angle_alpha                90
_cell_angle_beta                 98.394(4)
_cell_angle_gamma                90
_cell_volume                     563.904
loop_
_atom_site_label
_atom_site_type_symbol
_atom_site_fract_x
_atom_site_fract_y
_atom_site_fract_z
_atom_site_U_iso_or_equiv
_atom_site_thermal_displace_type
C5 C 0.1521(4) 0.64188(10) 0.32753(16) 0.0195 Uani
C1 C -0.0394(5) 0.66034(10) 0.19369(17) 0.0217 Uani
N1 N -0.1979(4) 0.60049(8) 0.10552(15) 0.0236 Uani
C6 C -0.1640(5) 0.51911(10) 0.14919(18) 0.0249 Uani
C4 C 0.0187(5) 0.49444(10) 0.28053(19) 0.0273 Uani
C2 C 0.1744(5) 0.55722(10) 0.37116(18) 0.0251 Uani
C3 C 0.3268(5) 0.70813(9) 0.42828(17) 0.0217 Uani
O1 O 0.3955(3) 0.69138(7) 0.55841(12) 0.0286 Uani
N2 N 0.4051(4) 0.78295(8) 0.37253(15) 0.0254 Uani
H2 H 0.510130 0.822941 0.428878 0.0300 Uiso
H3 H 0.351696 0.792269 0.279440 0.0300 Uiso
H1 H -0.058568 0.718318 0.163501 0.0260 Uiso
H6 H -0.271114 0.475921 0.086668 0.0300 Uiso
H5 H 0.036458 0.435908 0.307511 0.0330 Uiso
H4 H 0.296320 0.542460 0.463104 0.0300 Uiso
loop_
_atom_site_aniso_label
_atom_site_aniso_U_11
_atom_site_aniso_U_22
_atom_site_aniso_U_33
_atom_site_aniso_U_23
_atom_site_aniso_U_13
_atom_site_aniso_U_12
O1 0.0400(9) 0.0316(7) 0.0116(7) 0.0000(4) -0.0050(5) -0.0001(5)
C1 0.0262(10) 0.0236(8) 0.0138(8) 0.0007(6) -0.0023(7) 0.0001(6)
N1 0.0288(8) 0.0262(8) 0.0140(7) -0.0019(5) -0.0031(6) -0.0021(6)
N2 0.0364(10) 0.0248(7) 0.0122(8) -0.0018(5) -0.0058(6) -0.0017(6)
C2 0.0298(10) 0.0261(9) 0.0173(9) 0.0031(6) -0.0041(7) 0.0045(7)
C3 0.0253(10) 0.0253(8) 0.0125(9) -0.0009(6) -0.0043(7) 0.0044(7)
C4 0.0362(11) 0.0211(8) 0.0231(10) 0.0015(6) -0.0010(8) 0.0012(7)
C5 0.0219(9) 0.0227(8) 0.0128(9) -0.0006(6) -0.0012(7) 0.0027(6)
C6 0.0301(11) 0.0240(8) 0.0195(9) -0.0025(6) 0.0000(8) -0.0019(6)

#END
