
#######################################################################
#
#                 Cambridge Crystallographic Data Centre
#                                CCDC 
#
#######################################################################
#
# If this CIF has been generated from an entry in the Cambridge 
# Structural Database, then it will include bibliographic, chemical, 
# crystal, experimental, refinement or atomic coordinate data resulting 
# from the CCDC's data processing and validation procedures.
#
#######################################################################

data_NICOAM14
_symmetry_cell_setting           monoclinic
_symmetry_space_group_name_H-M   'P 2/n'
_symmetry_Int_Tables_number      13
_space_group_name_Hall           '-P 2yac'
loop_
_symmetry_equiv_pos_site_id
_symmetry_equiv_pos_as_xyz
1 x,y,z
2 1/2-x,y,1/2-z
3 -x,-y,-z
4 1/2+x,-y,1/2+z
_cell_length_a                   14.9915(3)
_cell_length_b                   10.6814(2)
_cell_length_c                   15.1888(4)
_cell_angle_alpha                90
_cell_angle_beta                 101.955(2)
_cell_angle_gamma                90
_cell_volume                     2379.43
loop_
_atom_site_label
_atom_site_type_symbol
_atom_site_fract_x
_atom_site_fract_y
_atom_site_fract_z
_atom_site_U_iso_or_equiv
_atom_site_thermal_displace_type
C2 C 0.72479(9) 1.09339(13) 0.11297(9) 0.0230 Uani
C1 C 0.75542(9) 1.21683(13) 0.12004(9) 0.0254 Uani
N2 N 0.83935(8) 1.25085(11) 0.16251(8) 0.0272 Uani
C3 C 0.89578(9) 1.15926(14) 0.19929(10) 0.0282 Uani
C4 C 0.87229(9) 1.03379(14) 0.19478(10) 0.0297 Uani
C6 C 0.78540(9) 1.00060(14) 0.15026(9) 0.0262 Uani
C5 C 0.63059(9) 1.05671(13) 0.06397(9) 0.0247 Uani
O1 O 0.61400(6) 0.94516(9) 0.04643(7) 0.0314 Uani
N1 N 0.56871(7) 1.14687(12) 0.04067(8) 0.0287 Uani
H1 H 0.513305 1.127952 0.011511 0.0340 Uiso
H2 H 0.583264 1.225309 0.054441 0.0340 Uiso
H3 H 0.714448 1.280532 0.093229 0.0300 Uiso
H4 H 0.955371 1.181624 0.230268 0.0340 Uiso
H5 H 0.914832 0.971878 0.221626 0.0360 Uiso
H6 H 0.767557 0.915121 0.145344 0.0310 Uiso
C7 C 0.87064(8) 0.76046(13) -0.16566(9) 0.0228 Uani
C9 C 0.87262(9) 0.88325(13) -0.19571(9) 0.0252 Uani
N4 N 0.87485(8) 0.91468(11) -0.28082(8) 0.0267 Uani
C10 C 0.87423(9) 0.82068(14) -0.33945(9) 0.0258 Uani
C12 C 0.87361(9) 0.69559(14) -0.31559(9) 0.0277 Uani
C11 C 0.87237(9) 0.66484(13) -0.22744(9) 0.0261 Uani
C8 C 0.86942(9) 0.72676(13) -0.06985(9) 0.0244 Uani
O2 O 0.87966(8) 0.61649(10) -0.04621(7) 0.0352 Uani
N3 N 0.85832(8) 0.81826(12) -0.01291(8) 0.0274 Uani
H7 H 0.858169 0.800584 0.043643 0.0330 Uiso
H8 H 0.851174 0.896115 -0.032025 0.0330 Uiso
H9 H 0.872374 0.948797 -0.153481 0.0300 Uiso
H10 H 0.874219 0.840880 -0.400364 0.0310 Uiso
H12 H 0.874020 0.631878 -0.359141 0.0330 Uiso
H11 H 0.872699 0.579678 -0.209340 0.0310 Uiso
C13 C 0.88575(8) 0.58116(13) 0.29062(9) 0.0238 Uani
C15 C 0.90990(9) 0.46272(13) 0.32522(9) 0.0259 Uani
N6 N 0.90865(8) 0.42812(11) 0.40964(8) 0.0281 Uani
C17 C 0.88186(10) 0.51436(14) 0.46286(10) 0.0313 Uani
C18 C 0.85756(11) 0.63501(15) 0.43493(10) 0.0354 Uani
C16 C 0.86060(10) 0.66934(14) 0.34773(10) 0.0303 Uani
C14 C 0.88723(9) 0.61676(13) 0.19556(9) 0.0240 Uani
O3 O 0.89369(7) 0.72941(9) 0.17628(6) 0.0290 Uani
N5 N 0.88105(8) 0.52588(11) 0.13515(8) 0.0281 Uani
H13 H 0.881396 0.543967 0.078698 0.0340 Uiso
H14 H 0.876588 0.447479 0.151501 0.0340 Uiso
H15 H 0.928447 0.402553 0.286580 0.0310 Uiso
H17 H 0.879467 0.491371 0.522745 0.0380 Uiso
H18 H 0.839096 0.693357 0.474871 0.0420 Uiso
H16 H 0.845633 0.752284 0.327343 0.0360 Uiso
C20 C 0.77168(9) 0.25543(13) 0.62773(9) 0.0253 Uani
C19 C 0.74685(9) 0.13470(13) 0.59930(9) 0.0260 Uani
N8 N 0.66292(8) 0.10282(11) 0.55492(8) 0.0287 Uani
C21 C 0.60119(10) 0.19434(15) 0.53821(10) 0.0327 Uani
C24 C 0.61939(10) 0.31772(15) 0.56260(11) 0.0352 Uani
C23 C 0.70649(10) 0.34892(14) 0.60773(10) 0.0306 Uani
C22 C 0.86618(9) 0.28923(13) 0.67862(9) 0.0268 Uani
O4 O 0.88978(7) 0.39945(9) 0.68575(7) 0.0347 Uani
N7 N 0.92019(8) 0.19503(12) 0.71481(8) 0.0313 Uani
H19 H 0.975587 0.210656 0.745480 0.0380 Uiso
H20 H 0.900355 0.117379 0.707959 0.0380 Uiso
H21 H 0.791805 0.070853 0.611958 0.0310 Uiso
H22 H 0.541135 0.173393 0.507705 0.0390 Uiso
H24 H 0.573197 0.379744 0.548712 0.0420 Uiso
H23 H 0.721380 0.433163 0.624765 0.0370 Uiso
loop_
_atom_site_aniso_label
_atom_site_aniso_U_11
_atom_site_aniso_U_22
_atom_site_aniso_U_33
_atom_site_aniso_U_23
_atom_site_aniso_U_13
_atom_site_aniso_U_12
O1 0.0284(5) 0.0234(6) 0.0396(6) -0.0061(4) 0.0005(4) -0.0027(4)
N1 0.0227(5) 0.0246(6) 0.0357(7) -0.0049(5) -0.0014(5) -0.0021(5)
C1 0.0242(6) 0.0227(7) 0.0281(7) -0.0009(6) 0.0029(5) 0.0012(5)
C2 0.0247(6) 0.0236(7) 0.0210(6) -0.0019(5) 0.0057(5) -0.0012(5)
N2 0.0248(6) 0.0242(6) 0.0318(6) -0.0037(5) 0.0041(5) -0.0027(5)
C3 0.0227(6) 0.0292(8) 0.0315(7) -0.0025(6) 0.0025(5) -0.0002(6)
C4 0.0257(7) 0.0273(8) 0.0344(8) 0.0018(6) 0.0025(6) 0.0033(6)
C5 0.0259(7) 0.0234(7) 0.0248(7) -0.0029(6) 0.0051(5) -0.0027(6)
C6 0.0286(7) 0.0210(7) 0.0296(7) -0.0001(6) 0.0074(5) -0.0015(6)
O2 0.0571(7) 0.0227(6) 0.0257(5) 0.0012(4) 0.0080(5) -0.0017(5)
N3 0.0340(6) 0.0259(6) 0.0221(6) 0.0009(5) 0.0054(5) 0.0014(5)
N4 0.0280(6) 0.0236(6) 0.0280(6) 0.0026(5) 0.0049(5) 0.0038(5)
C7 0.0197(6) 0.0238(7) 0.0242(7) 0.0002(5) 0.0029(5) -0.0005(5)
C8 0.0245(6) 0.0230(7) 0.0247(7) -0.0003(6) 0.0030(5) -0.0023(5)
C9 0.0271(6) 0.0237(7) 0.0246(7) -0.0015(6) 0.0048(5) 0.0026(5)
C10 0.0255(6) 0.0281(8) 0.0227(7) 0.0015(6) 0.0027(5) 0.0003(6)
C11 0.0291(7) 0.0206(7) 0.0278(7) 0.0008(6) 0.0038(5) -0.0022(5)
C12 0.0321(7) 0.0265(8) 0.0237(7) -0.0031(6) 0.0042(5) -0.0011(6)
O3 0.0388(5) 0.0207(5) 0.0254(5) 0.0017(4) 0.0019(4) -0.0014(4)
N5 0.0400(6) 0.0212(6) 0.0226(6) 0.0010(5) 0.0051(5) -0.0024(5)
N6 0.0311(6) 0.0241(6) 0.0261(6) 0.0015(5) -0.0007(5) -0.0038(5)
C13 0.0224(6) 0.0223(7) 0.0247(7) -0.0005(6) 0.0006(5) -0.0021(5)
C14 0.0250(6) 0.0211(7) 0.0246(7) 0.0008(6) 0.0020(5) 0.0001(5)
C15 0.0282(7) 0.0218(7) 0.0256(7) -0.0009(6) 0.0010(5) -0.0008(5)
C16 0.0393(8) 0.0228(7) 0.0278(7) -0.0001(6) 0.0047(6) 0.0026(6)
C17 0.0390(8) 0.0295(8) 0.0240(7) -0.0002(6) 0.0032(6) -0.0048(6)
C18 0.0498(9) 0.0300(8) 0.0266(7) -0.0031(6) 0.0086(6) 0.0029(7)
O4 0.0382(6) 0.0206(5) 0.0429(6) -0.0014(4) 0.0027(5) -0.0037(4)
N7 0.0299(6) 0.0235(6) 0.0360(7) 0.0008(5) -0.0034(5) -0.0022(5)
N8 0.0302(6) 0.0278(7) 0.0268(6) 0.0045(5) 0.0028(5) -0.0029(5)
C19 0.0289(7) 0.0227(7) 0.0257(7) 0.0035(6) 0.0038(5) 0.0014(6)
C20 0.0303(7) 0.0235(7) 0.0224(6) 0.0028(5) 0.0061(5) -0.0003(6)
C21 0.0257(7) 0.0356(9) 0.0352(8) 0.0069(7) 0.0025(6) -0.0014(6)
C22 0.0313(7) 0.0230(7) 0.0260(7) -0.0002(6) 0.0058(5) -0.0009(6)
C23 0.0350(7) 0.0232(8) 0.0339(8) 0.0020(6) 0.0075(6) 0.0011(6)
C24 0.0305(7) 0.0316(8) 0.0427(9) 0.0065(7) 0.0060(6) 0.0055(6)

#END
