
#######################################################################
#
#                 Cambridge Crystallographic Data Centre
#                                CCDC 
#
#######################################################################
#
# If this CIF has been generated from an entry in the Cambridge 
# Structural Database, then it will include bibliographic, chemical, 
# crystal, experimental, refinement or atomic coordinate data resulting 
# from the CCDC's data processing and validation procedures.
#
#######################################################################

data_NICOAM07
_symmetry_cell_setting           monoclinic
_symmetry_space_group_name_H-M   'P 21'
_symmetry_Int_Tables_number      4
_space_group_name_Hall           'P 2yb'
loop_
_symmetry_equiv_pos_site_id
_symmetry_equiv_pos_as_xyz
1 x,y,z
2 -x,1/2+y,-z
_cell_length_a                   3.81231(4)
_cell_length_b                   14.38794(19)
_cell_length_c                   5.11942(6)
_cell_angle_alpha                90
_cell_angle_beta                 94.2560(10)
_cell_angle_gamma                90
_cell_volume                     280.032
loop_
_atom_site_label
_atom_site_type_symbol
_atom_site_fract_x
_atom_site_fract_y
_atom_site_fract_z
_atom_site_U_iso_or_equiv
_atom_site_thermal_displace_type
C2 C 0.7684(4) 0.48656(11) 0.3810(3) 0.0141 Uani
C3 C 0.8837(4) 0.55562(12) 0.5595(3) 0.0161 Uani
N2 N 0.8291(4) 0.64631(9) 0.5224(3) 0.0182 Uani
C6 C 0.6447(4) 0.67201(11) 0.3004(3) 0.0178 Uani
C5 C 0.5144(4) 0.60872(12) 0.1122(3) 0.0171 Uani
C4 C 0.5786(4) 0.51429(12) 0.1507(3) 0.0155 Uani
C1 C 0.8602(4) 0.38821(10) 0.4531(3) 0.0155 Uani
O1 O 0.9077(3) 0.36635(9) 0.6872(2) 0.0220 Uani
N1 N 0.8954(4) 0.32839(10) 0.2575(3) 0.0184 Uani
H1 H 0.953680 0.271666 0.291288 0.0220 Uiso
H2 H 0.859863 0.346570 0.097717 0.0220 Uiso
H3 H 1.006651 0.537020 0.714423 0.0190 Uiso
H6 H 0.602238 0.734950 0.271325 0.0210 Uiso
H5 H 0.385567 0.629298 -0.038090 0.0200 Uiso
H4 H 0.497023 0.470825 0.026145 0.0190 Uiso
loop_
_atom_site_aniso_label
_atom_site_aniso_U_11
_atom_site_aniso_U_22
_atom_site_aniso_U_33
_atom_site_aniso_U_23
_atom_site_aniso_U_13
_atom_site_aniso_U_12
O1 0.0340(7) 0.0164(6) 0.0154(5) 0.0023(5) 0.0003(4) 0.0035(5)
N1 0.0281(8) 0.0110(6) 0.0157(7) 0.0011(5) -0.0003(6) 0.0032(6)
N2 0.0219(7) 0.0140(7) 0.0186(7) -0.0007(6) 0.0015(5) -0.0017(6)
C1 0.0161(7) 0.0127(7) 0.0176(8) 0.0005(6) -0.0002(6) -0.0009(6)
C2 0.0145(7) 0.0115(7) 0.0163(7) 0.0002(6) 0.0017(6) -0.0009(6)
C3 0.0182(8) 0.0142(8) 0.0158(8) -0.0009(6) 0.0001(6) -0.0001(6)
C4 0.0166(7) 0.0130(8) 0.0168(7) -0.0013(6) 0.0003(6) -0.0017(6)
C5 0.0176(8) 0.0161(8) 0.0172(7) 0.0017(6) -0.0006(6) 0.0011(7)
C6 0.0196(8) 0.0126(8) 0.0213(8) 0.0001(6) 0.0030(6) 0.0009(7)

#END
