
#######################################################################
#
#                 Cambridge Crystallographic Data Centre
#                                CCDC 
#
#######################################################################
#
# If this CIF has been generated from an entry in the Cambridge 
# Structural Database, then it will include bibliographic, chemical, 
# crystal, experimental, refinement or atomic coordinate data resulting 
# from the CCDC's data processing and validation procedures.
#
#######################################################################

data_NICOAM17
_symmetry_cell_setting           monoclinic
_symmetry_space_group_name_H-M   'P 21/c'
_symmetry_Int_Tables_number      14
_space_group_name_Hall           '-P 2ybc'
loop_
_symmetry_equiv_pos_site_id
_symmetry_equiv_pos_as_xyz
1 x,y,z
2 -x,1/2+y,1/2-z
3 -x,-y,-z
4 x,1/2-y,1/2+z
_cell_length_a                   9.9011(3)
_cell_length_b                   5.87732(19)
_cell_length_c                   10.2784(5)
_cell_angle_alpha                90
_cell_angle_beta                 100.003(4)
_cell_angle_gamma                90
_cell_volume                     589.028
loop_
_atom_site_label
_atom_site_type_symbol
_atom_site_fract_x
_atom_site_fract_y
_atom_site_fract_z
_atom_site_U_iso_or_equiv
_atom_site_thermal_displace_type
C1 C 0.2765(2) 0.4302(4) 0.5676(2) 0.0298 Uani
C4 C 0.1959(2) 0.3906(4) 0.6650(2) 0.0359 Uani
N2 N 0.1050(2) 0.5338(4) 0.6922(2) 0.0472 Uani
C6 C 0.0899(3) 0.7290(5) 0.6186(3) 0.0496 Uani
C5 C 0.1625(3) 0.7816(4) 0.5171(3) 0.0429 Uani
C3 C 0.2567(2) 0.6289(4) 0.4911(2) 0.0357 Uani
C2 C 0.3785(2) 0.2632(3) 0.5413(2) 0.0302 Uani
O1 O 0.40997(16) 0.2493(3) 0.42563(14) 0.0357 Uani
N1 N 0.43390(19) 0.1330(3) 0.64554(17) 0.0337 Uani
H2 H 0.469723 0.012928 0.617516 0.0400 Uiso
H1 H 0.370867 0.093366 0.689242 0.0400 Uiso
H4 H 0.208247 0.255128 0.712238 0.0430 Uiso
H6 H 0.026309 0.835160 0.637390 0.0600 Uiso
H5 H 0.146579 0.916265 0.469429 0.0510 Uiso
H3 H 0.307040 0.655174 0.424162 0.0430 Uiso
loop_
_atom_site_aniso_label
_atom_site_aniso_U_11
_atom_site_aniso_U_22
_atom_site_aniso_U_33
_atom_site_aniso_U_23
_atom_site_aniso_U_13
_atom_site_aniso_U_12
O1 0.0435(9) 0.0392(9) 0.0269(8) 0.0010(6) 0.0132(7) 0.0062(7)
N1 0.0421(10) 0.0339(9) 0.0282(9) 0.0015(7) 0.0147(8) 0.0059(7)
N2 0.0447(11) 0.0516(13) 0.0492(13) -0.0086(10) 0.0188(9) 0.0007(9)
C1 0.0329(10) 0.0321(10) 0.0255(10) -0.0040(8) 0.0079(8) -0.0025(8)
C2 0.0359(10) 0.0334(11) 0.0235(10) -0.0020(8) 0.0109(8) -0.0025(8)
C3 0.0381(11) 0.0374(12) 0.0337(11) 0.0004(9) 0.0119(9) 0.0000(9)
C4 0.0397(11) 0.0382(11) 0.0324(11) -0.0012(9) 0.0134(9) -0.0010(9)
C5 0.0452(13) 0.0361(12) 0.0481(15) -0.0004(10) 0.0104(11) 0.0074(10)
C6 0.0387(12) 0.0521(15) 0.0611(17) -0.0189(12) 0.0174(12) 0.0054(11)

#END
