
#######################################################################
#
#                 Cambridge Crystallographic Data Centre
#                                CCDC 
#
#######################################################################
#
# If this CIF has been generated from an entry in the Cambridge 
# Structural Database, then it will include bibliographic, chemical, 
# crystal, experimental, refinement or atomic coordinate data resulting 
# from the CCDC's data processing and validation procedures.
#
#######################################################################

data_NICOAM15
_symmetry_cell_setting           monoclinic
_symmetry_space_group_name_H-M   'P 21/c'
_symmetry_Int_Tables_number      14
_space_group_name_Hall           '-P 2ybc'
loop_
_symmetry_equiv_pos_site_id
_symmetry_equiv_pos_as_xyz
1 x,y,z
2 -x,1/2+y,1/2-z
3 -x,-y,-z
4 x,1/2-y,1/2+z
_cell_length_a                   15.3671(7)
_cell_length_b                   7.3847(5)
_cell_length_c                   21.1950(10)
_cell_angle_alpha                90
_cell_angle_beta                 104.650(5)
_cell_angle_gamma                90
_cell_volume                     2327.04
loop_
_atom_site_label
_atom_site_type_symbol
_atom_site_fract_x
_atom_site_fract_y
_atom_site_fract_z
_atom_site_U_iso_or_equiv
_atom_site_thermal_displace_type
C1 C -0.01525(19) 0.6124(5) 0.22407(14) 0.0356 Uani
C3 C -0.0511(2) 0.6066(5) 0.27814(15) 0.0405 Uani
N2 N -0.13940(18) 0.5948(5) 0.27373(13) 0.0437 Uani
C4 C -0.1947(2) 0.5871(5) 0.21381(17) 0.0412 Uani
C5 C -0.1654(2) 0.5938(5) 0.15734(16) 0.0423 Uani
C6 C -0.0737(2) 0.6076(5) 0.16334(15) 0.0389 Uani
C2 C 0.08489(19) 0.6254(5) 0.23017(14) 0.0350 Uani
O1 O 0.11101(14) 0.6265(4) 0.17895(10) 0.0441 Uani
N1 N 0.14031(16) 0.6332(4) 0.28882(13) 0.0412 Uani
H1 H 0.198717 0.639496 0.293188 0.0500 Uiso
H2 H 0.118886 0.632000 0.323593 0.0500 Uiso
H3 H -0.010936 0.611284 0.320315 0.0490 Uiso
H4 H -0.257487 0.576566 0.209892 0.0500 Uiso
H5 H -0.206794 0.589046 0.115657 0.0510 Uiso
H6 H -0.051446 0.613623 0.125472 0.0470 Uiso
C7 C 0.38398(17) 0.0760(5) -0.01229(13) 0.0339 Uani
C8 C 0.36793(17) 0.0072(5) 0.04463(13) 0.0350 Uani
N3 N 0.33579(15) -0.1596(4) 0.05009(11) 0.0351 Uani
C10 C 0.31806(18) -0.2637(5) -0.00321(15) 0.0364 Uani
C9 C 0.33233(19) -0.2080(5) -0.06226(14) 0.0373 Uani
C11 C 0.36517(18) -0.0344(5) -0.06734(13) 0.0348 Uani
C12 C 0.42285(18) 0.2642(5) -0.00922(14) 0.0340 Uani
O2 O 0.44679(14) 0.3426(4) 0.04370(10) 0.0420 Uani
N4 N 0.43249(17) 0.3371(4) -0.06447(12) 0.0386 Uani
H7 H 0.456728 0.445157 -0.064086 0.0460 Uiso
H8 H 0.414633 0.277189 -0.101381 0.0460 Uiso
H9 H 0.380456 0.082904 0.082090 0.0420 Uiso
H11 H 0.294530 -0.381638 -0.000521 0.0440 Uiso
H10 H 0.319870 -0.287287 -0.098748 0.0450 Uiso
H12 H 0.374530 0.007776 -0.107451 0.0420 Uiso
C13 C 0.55214(18) 0.2191(5) -0.24489(13) 0.0326 Uani
C17 C 0.51304(19) 0.2282(5) -0.19210(14) 0.0349 Uani
N5 N 0.42444(17) 0.2075(4) -0.19870(12) 0.0387 Uani
C16 C 0.37256(19) 0.1763(5) -0.25877(15) 0.0373 Uani
C14 C 0.4051(2) 0.1676(5) -0.31388(14) 0.0381 Uani
C15 C 0.4970(2) 0.1904(5) -0.30630(14) 0.0373 Uani
C18 C 0.65138(18) 0.2480(5) -0.23719(14) 0.0337 Uani
O3 O 0.67777(13) 0.2751(4) -0.28712(10) 0.0412 Uani
N6 N 0.70699(15) 0.2426(4) -0.17804(12) 0.0396 Uani
H13 H 0.765081 0.258631 -0.173094 0.0470 Uiso
H14 H 0.685784 0.223021 -0.143777 0.0470 Uiso
H18 H 0.550785 0.250054 -0.149819 0.0420 Uiso
H17 H 0.309899 0.159325 -0.263782 0.0450 Uiso
H15 H 0.365777 0.146569 -0.355668 0.0460 Uiso
H16 H 0.521561 0.186280 -0.343150 0.0450 Uiso
C19 C 0.13512(17) 0.4364(5) 0.52093(14) 0.0344 Uani
C21 C 0.13165(19) 0.4735(5) 0.45606(14) 0.0400 Uani
N7 N 0.10399(17) 0.6340(5) 0.42730(12) 0.0424 Uani
C24 C 0.0797(2) 0.7583(5) 0.46473(17) 0.0445 Uani
C22 C 0.0832(2) 0.7363(5) 0.52948(15) 0.0406 Uani
C20 C 0.11077(18) 0.5702(5) 0.55873(14) 0.0389 Uani
C23 C 0.1625(2) 0.2463(5) 0.54440(16) 0.0441 Uani
O4 O 0.1764(2) 0.1318(4) 0.50600(13) 0.0614 Uani
N8 N 0.16827(18) 0.2115(5) 0.60736(13) 0.0451 Uani
H19 H 0.182595 0.102190 0.623082 0.0540 Uiso
H20 H 0.157729 0.298068 0.633004 0.0540 Uiso
H22 H 0.149621 0.381523 0.430674 0.0480 Uiso
H24 H 0.058282 0.870899 0.445161 0.0530 Uiso
H23 H 0.067102 0.832677 0.553983 0.0490 Uiso
H21 H 0.112804 0.549442 0.603311 0.0470 Uiso
loop_
_atom_site_aniso_label
_atom_site_aniso_U_11
_atom_site_aniso_U_22
_atom_site_aniso_U_33
_atom_site_aniso_U_23
_atom_site_aniso_U_13
_atom_site_aniso_U_12
O1 0.0410(11) 0.0643(17) 0.0301(10) -0.0029(11) 0.0147(9) -0.0045(10)
N1 0.0330(12) 0.058(2) 0.0338(13) 0.0002(13) 0.0107(10) -0.0018(11)
N2 0.0390(13) 0.057(2) 0.0384(14) -0.0025(14) 0.0158(11) -0.0045(12)
C1 0.0365(15) 0.0406(19) 0.0314(14) -0.0008(13) 0.0118(12) -0.0024(12)
C2 0.0370(14) 0.0405(19) 0.0292(14) -0.0011(13) 0.0116(11) -0.0035(12)
C3 0.0398(15) 0.055(2) 0.0286(14) -0.0018(14) 0.0119(12) -0.0020(14)
C4 0.0351(14) 0.046(2) 0.0437(17) -0.0003(15) 0.0120(12) -0.0048(13)
C5 0.0426(16) 0.046(2) 0.0368(16) -0.0006(15) 0.0074(13) -0.0060(14)
C6 0.0439(16) 0.043(2) 0.0318(15) -0.0013(14) 0.0130(12) -0.0044(13)
O2 0.0477(11) 0.0520(16) 0.0267(10) -0.0048(10) 0.0102(9) -0.0102(10)
N3 0.0322(11) 0.0461(17) 0.0272(11) 0.0030(12) 0.0081(9) -0.0034(10)
N4 0.0450(13) 0.0463(18) 0.0256(11) -0.0019(12) 0.0110(10) -0.0100(11)
C7 0.0249(12) 0.0491(19) 0.0284(13) 0.0025(13) 0.0079(10) 0.0000(11)
C8 0.0312(13) 0.052(2) 0.0230(12) -0.0021(13) 0.0088(10) 0.0004(12)
C9 0.0378(14) 0.048(2) 0.0260(13) -0.0036(13) 0.0079(11) -0.0036(12)
C10 0.0306(13) 0.0432(19) 0.0354(15) 0.0013(14) 0.0082(11) -0.0006(12)
C11 0.0326(13) 0.048(2) 0.0254(13) -0.0009(13) 0.0104(10) -0.0016(12)
C12 0.0286(12) 0.046(2) 0.0282(14) -0.0005(14) 0.0084(10) -0.0006(11)
O3 0.0346(10) 0.0640(17) 0.0279(10) 0.0038(11) 0.0133(8) 0.0036(10)
N5 0.0346(12) 0.0537(18) 0.0288(12) -0.0018(12) 0.0101(10) -0.0018(11)
N6 0.0281(11) 0.0622(19) 0.0288(12) 0.0056(12) 0.0080(9) 0.0007(11)
C13 0.0323(14) 0.0407(19) 0.0258(13) 0.0003(13) 0.0090(11) 0.0005(11)
C14 0.0380(14) 0.050(2) 0.0248(13) 0.0006(13) 0.0052(11) -0.0016(13)
C15 0.0395(15) 0.045(2) 0.0276(13) 0.0015(13) 0.0091(11) 0.0009(13)
C16 0.0324(13) 0.046(2) 0.0331(15) 0.0001(14) 0.0078(11) -0.0028(12)
C17 0.0350(14) 0.047(2) 0.0242(13) 0.0002(13) 0.0102(11) -0.0016(12)
C18 0.0313(13) 0.0443(19) 0.0271(13) 0.0013(13) 0.0105(11) 0.0024(12)
N7 0.0384(12) 0.060(2) 0.0288(12) 0.0021(13) 0.0086(10) -0.0075(12)
N8 0.0536(15) 0.0487(19) 0.0332(13) 0.0035(13) 0.0115(12) 0.0044(12)
O4 0.093(2) 0.0497(18) 0.0427(14) -0.0067(13) 0.0192(13) 0.0074(14)
C19 0.0280(12) 0.0455(19) 0.0302(14) -0.0042(13) 0.0081(10) -0.0060(11)
C20 0.0331(13) 0.054(2) 0.0301(14) -0.0010(14) 0.0089(11) -0.0054(12)
C21 0.0361(14) 0.056(2) 0.0300(14) -0.0074(15) 0.0125(11) -0.0078(13)
C22 0.0382(14) 0.050(2) 0.0344(15) -0.0055(15) 0.0108(12) -0.0011(13)
C23 0.0430(16) 0.053(2) 0.0367(16) -0.0036(16) 0.0107(13) -0.0083(14)
C24 0.0445(16) 0.051(2) 0.0389(16) 0.0037(16) 0.0120(13) 0.0010(14)

#END
