
#######################################################################
#
#                 Cambridge Crystallographic Data Centre
#                                CCDC 
#
#######################################################################
#
# If this CIF has been generated from an entry in the Cambridge 
# Structural Database, then it will include bibliographic, chemical, 
# crystal, experimental, refinement or atomic coordinate data resulting 
# from the CCDC's data processing and validation procedures.
#
#######################################################################

data_NICOAM18
_symmetry_cell_setting           triclinic
_symmetry_space_group_name_H-M   'P -1'
_symmetry_Int_Tables_number      2
_space_group_name_Hall           '-P 1'
loop_
_symmetry_equiv_pos_site_id
_symmetry_equiv_pos_as_xyz
1 x,y,z
2 -x,-y,-z
_cell_length_a                   7.5564(2)
_cell_length_b                   7.9413(2)
_cell_length_c                   10.7974(4)
_cell_angle_alpha                108.100(3)
_cell_angle_beta                 102.596(2)
_cell_angle_gamma                98.293(2)
_cell_volume                     585.137
loop_
_atom_site_label
_atom_site_type_symbol
_atom_site_fract_x
_atom_site_fract_y
_atom_site_fract_z
_atom_site_U_iso_or_equiv
_atom_site_thermal_displace_type
C2 C 0.4596(3) 0.7403(3) 0.5390(2) 0.0221 Uani
C5 C 0.5228(3) 0.7732(3) 0.4349(2) 0.0262 Uani
N2 N 0.6983(3) 0.8532(3) 0.45026(19) 0.0278 Uani
C4 C 0.8187(3) 0.9056(3) 0.5738(2) 0.0286 Uani
C6 C 0.7688(3) 0.8811(3) 0.6845(2) 0.0269 Uani
C3 C 0.5867(3) 0.7978(3) 0.6665(2) 0.0247 Uani
C1 C 0.2628(3) 0.6480(3) 0.5205(2) 0.0225 Uani
O1 O 0.2181(2) 0.6286(2) 0.62030(15) 0.0277 Uani
N1 N 0.1417(3) 0.5917(3) 0.39838(18) 0.0253 Uani
H1 H 0.028081 0.539790 0.386399 0.0300 Uiso
H2 H 0.176828 0.607143 0.331325 0.0300 Uiso
H5 H 0.437965 0.737484 0.349752 0.0310 Uiso
H4 H 0.941492 0.961106 0.585987 0.0340 Uiso
H6 H 0.856000 0.919834 0.768868 0.0320 Uiso
H3 H 0.549463 0.780329 0.739086 0.0300 Uiso
C8 C 0.7542(3) 0.6881(3) 0.0498(2) 0.0225 Uani
C7 C 0.7837(3) 0.6045(3) -0.0761(2) 0.0237 Uani
N3 N 0.7846(3) 0.4290(3) -0.12803(18) 0.0249 Uani
C11 C 0.7560(3) 0.3274(3) -0.0524(2) 0.0253 Uani
C10 C 0.7295(3) 0.3978(3) 0.0754(2) 0.0267 Uani
C9 C 0.7282(3) 0.5794(3) 0.1270(2) 0.0243 Uani
C12 C 0.7508(3) 0.8847(3) 0.0897(2) 0.0262 Uani
O2 O 0.7622(3) 0.9648(3) 0.00969(18) 0.0417 Uani
N4 N 0.7359(3) 0.9687(3) 0.21424(19) 0.0266 Uani
H7 H 0.734101 1.082228 0.240544 0.0320 Uiso
H8 H 0.728115 0.909113 0.267858 0.0320 Uiso
H9 H 0.804204 0.676483 -0.127279 0.0280 Uiso
H12 H 0.753667 0.204017 -0.087214 0.0300 Uiso
H11 H 0.712976 0.323357 0.125476 0.0320 Uiso
H10 H 0.710258 0.628996 0.212235 0.0290 Uiso
loop_
_atom_site_aniso_label
_atom_site_aniso_U_11
_atom_site_aniso_U_22
_atom_site_aniso_U_33
_atom_site_aniso_U_23
_atom_site_aniso_U_13
_atom_site_aniso_U_12
O1 0.0293(8) 0.0339(9) 0.0178(7) 0.0090(7) 0.0089(6) -0.0028(7)
N1 0.0245(9) 0.0315(10) 0.0178(9) 0.0088(8) 0.0071(7) -0.0021(8)
N2 0.0280(10) 0.0352(11) 0.0199(9) 0.0113(8) 0.0085(8) -0.0002(8)
C1 0.0274(11) 0.0205(11) 0.0194(10) 0.0064(8) 0.0093(8) 0.0024(8)
C2 0.0261(11) 0.0205(10) 0.0200(10) 0.0069(8) 0.0093(9) 0.0027(8)
C3 0.0300(12) 0.0270(11) 0.0194(10) 0.0106(9) 0.0098(9) 0.0041(9)
C4 0.0245(11) 0.0353(13) 0.0248(11) 0.0121(10) 0.0076(9) -0.0010(9)
C5 0.0283(11) 0.0296(12) 0.0175(10) 0.0078(9) 0.0057(8) -0.0004(9)
C6 0.0265(11) 0.0334(13) 0.0194(10) 0.0110(9) 0.0046(8) 0.0013(9)
N3 0.0261(9) 0.0296(10) 0.0195(9) 0.0099(8) 0.0073(7) 0.0039(8)
O2 0.0770(15) 0.0337(10) 0.0279(9) 0.0188(8) 0.0266(9) 0.0181(9)
N4 0.0343(10) 0.0269(10) 0.0215(9) 0.0109(8) 0.0111(8) 0.0059(8)
C7 0.0245(10) 0.0304(12) 0.0178(10) 0.0117(9) 0.0061(8) 0.0041(9)
C8 0.0212(10) 0.0293(12) 0.0179(10) 0.0102(9) 0.0063(8) 0.0029(8)
C9 0.0255(11) 0.0319(12) 0.0179(10) 0.0110(9) 0.0091(8) 0.0045(9)
C10 0.0292(11) 0.0321(13) 0.0214(11) 0.0139(9) 0.0087(9) 0.0027(9)
C11 0.0272(11) 0.0267(12) 0.0210(10) 0.0092(9) 0.0061(9) 0.0021(9)
C12 0.0299(11) 0.0298(12) 0.0220(10) 0.0123(9) 0.0102(9) 0.0052(9)

#END
