
#######################################################################
#
#                 Cambridge Crystallographic Data Centre
#                                CCDC 
#
#######################################################################
#
# If this CIF has been generated from an entry in the Cambridge 
# Structural Database, then it will include bibliographic, chemical, 
# crystal, experimental, refinement or atomic coordinate data resulting 
# from the CCDC's data processing and validation procedures.
#
#######################################################################

data_NICOAM16
_symmetry_cell_setting           monoclinic
_symmetry_space_group_name_H-M   'P 21/c'
_symmetry_Int_Tables_number      14
_space_group_name_Hall           '-P 2ybc'
loop_
_symmetry_equiv_pos_site_id
_symmetry_equiv_pos_as_xyz
1 x,y,z
2 -x,1/2+y,1/2-z
3 -x,-y,-z
4 x,1/2-y,1/2+z
_cell_length_a                   7.3525(3)
_cell_length_b                   20.7383(9)
_cell_length_c                   7.4058(4)
_cell_angle_alpha                90
_cell_angle_beta                 91.044(5)
_cell_angle_gamma                90
_cell_volume                     1129.04
loop_
_atom_site_label
_atom_site_type_symbol
_atom_site_fract_x
_atom_site_fract_y
_atom_site_fract_z
_atom_site_U_iso_or_equiv
_atom_site_thermal_displace_type
C1 C 0.2192(3) 0.48180(10) 0.4360(3) 0.0226 Uani
C2 C 0.2687(3) 0.53481(10) 0.5415(3) 0.0247 Uani
N2 N 0.3437(3) 0.53037(9) 0.7087(2) 0.0267 Uani
C4 C 0.3678(3) 0.47081(10) 0.7754(3) 0.0261 Uani
C6 C 0.3215(3) 0.41520(10) 0.6831(3) 0.0252 Uani
C5 C 0.2459(3) 0.42072(10) 0.5093(3) 0.0245 Uani
C3 C 0.1380(3) 0.48818(10) 0.2467(3) 0.0234 Uani
O1 O 0.0989(2) 0.43860(7) 0.15985(19) 0.0258 Uani
N1 N 0.1138(3) 0.54691(8) 0.1799(2) 0.0260 Uani
H1 H 0.069439 0.551816 0.072547 0.0310 Uiso
H2 H 0.142456 0.580105 0.243946 0.0310 Uiso
H3 H 0.248982 0.575744 0.493811 0.0300 Uiso
H4 H 0.418872 0.466736 0.890610 0.0310 Uiso
H6 H 0.340082 0.374922 0.735526 0.0300 Uiso
H5 H 0.214003 0.384092 0.443530 0.0290 Uiso
C7 C 0.3433(3) 0.77418(10) 0.3881(3) 0.0236 Uani
C8 C 0.3197(3) 0.70802(10) 0.3868(3) 0.0258 Uani
N4 N 0.1663(3) 0.67868(9) 0.3327(2) 0.0282 Uani
C10 C 0.0287(3) 0.71685(11) 0.2834(3) 0.0287 Uani
C12 C 0.0364(3) 0.78322(11) 0.2865(3) 0.0285 Uani
C11 C 0.1971(3) 0.81295(11) 0.3379(3) 0.0262 Uani
C9 C 0.5281(3) 0.79966(10) 0.4396(3) 0.0254 Uani
O2 O 0.6375(2) 0.76563(8) 0.5233(2) 0.0342 Uani
N3 N 0.5637(3) 0.86067(9) 0.3894(2) 0.0276 Uani
H7 H 0.677298 0.864088 0.362968 0.0330 Uiso
H8 H 0.498289 0.871067 0.295674 0.0330 Uiso
H9 H 0.416407 0.682393 0.425851 0.0310 Uiso
H10 H -0.079250 0.697567 0.244427 0.0340 Uiso
H12 H -0.065196 0.807636 0.254405 0.0340 Uiso
H11 H 0.207083 0.857656 0.338839 0.0310 Uiso
loop_
_atom_site_aniso_label
_atom_site_aniso_U_11
_atom_site_aniso_U_22
_atom_site_aniso_U_33
_atom_site_aniso_U_23
_atom_site_aniso_U_13
_atom_site_aniso_U_12
O1 0.0287(8) 0.0262(7) 0.0223(7) -0.0025(6) -0.0022(6) 0.0014(6)
N1 0.0315(10) 0.0264(9) 0.0200(8) -0.0013(7) -0.0043(7) 0.0010(7)
N2 0.0294(10) 0.0290(9) 0.0218(9) -0.0010(7) -0.0008(8) -0.0014(7)
C1 0.0218(11) 0.0279(10) 0.0183(10) -0.0002(8) 0.0032(8) 0.0000(8)
C2 0.0258(12) 0.0255(10) 0.0228(10) 0.0009(8) 0.0015(9) 0.0006(8)
C3 0.0210(11) 0.0267(10) 0.0225(10) -0.0012(8) 0.0037(8) 0.0011(8)
C4 0.0243(11) 0.0319(11) 0.0222(10) 0.0012(8) 0.0008(9) -0.0005(8)
C5 0.0245(11) 0.0261(10) 0.0230(10) -0.0026(8) 0.0031(8) -0.0002(8)
C6 0.0265(11) 0.0268(10) 0.0223(10) 0.0030(8) 0.0040(8) 0.0009(8)
O2 0.0276(9) 0.0399(9) 0.0348(9) 0.0084(7) -0.0038(7) 0.0006(7)
N3 0.0266(10) 0.0334(10) 0.0229(9) 0.0008(7) 0.0000(7) -0.0036(7)
N4 0.0344(11) 0.0273(9) 0.0228(9) 0.0002(7) 0.0005(8) -0.0014(7)
C7 0.0257(11) 0.0298(10) 0.0154(9) 0.0007(8) 0.0034(8) 0.0006(8)
C8 0.0292(12) 0.0274(10) 0.0208(10) 0.0007(8) 0.0015(9) 0.0030(8)
C9 0.0266(12) 0.0300(11) 0.0195(9) -0.0012(8) 0.0016(8) -0.0007(8)
C10 0.0275(12) 0.0336(12) 0.0251(11) 0.0020(9) 0.0002(9) -0.0042(9)
C11 0.0297(12) 0.0259(10) 0.0230(10) 0.0012(8) 0.0033(9) 0.0004(9)
C12 0.0248(12) 0.0342(12) 0.0264(11) 0.0049(9) 0.0008(9) 0.0036(9)

#END
