
#######################################################################
#
#                 Cambridge Crystallographic Data Centre
#                                CCDC 
#
#######################################################################
#
# If this CIF has been generated from an entry in the Cambridge 
# Structural Database, then it will include bibliographic, chemical, 
# crystal, experimental, refinement or atomic coordinate data resulting 
# from the CCDC's data processing and validation procedures.
#
#######################################################################

data_NICOAM08
_symmetry_cell_setting           triclinic
_symmetry_space_group_name_H-M   'P -1'
_symmetry_Int_Tables_number      2
_space_group_name_Hall           '-P 1'
loop_
_symmetry_equiv_pos_site_id
_symmetry_equiv_pos_as_xyz
1 x,y,z
2 -x,-y,-z
_cell_length_a                   3.7525(3)
_cell_length_b                   12.3229(7)
_cell_length_c                   13.0618(6)
_cell_angle_alpha                71.499(5)
_cell_angle_beta                 85.676(6)
_cell_angle_gamma                85.202(5)
_cell_volume                     570.013
loop_
_atom_site_label
_atom_site_type_symbol
_atom_site_fract_x
_atom_site_fract_y
_atom_site_fract_z
_atom_site_U_iso_or_equiv
_atom_site_thermal_displace_type
C1 C 0.3681(5) 0.71876(16) 0.27316(15) 0.0230 Uani
C4 C 0.4360(6) 0.69619(17) 0.17501(16) 0.0270 Uani
N2 N 0.5767(5) 0.76954(15) 0.08583(14) 0.0307 Uani
C6 C 0.6581(6) 0.87112(18) 0.09299(17) 0.0301 Uani
C5 C 0.5894(5) 0.90351(17) 0.18517(17) 0.0289 Uani
C2 C 0.4408(5) 0.82673(16) 0.27622(16) 0.0253 Uani
C3 C 0.2219(5) 0.63220(16) 0.37185(15) 0.0228 Uani
O1 O 0.0487(4) 0.66271(11) 0.44452(11) 0.0260 Uani
N1 N 0.2851(5) 0.52226(13) 0.37812(13) 0.0256 Uani
H1 H 0.205480 0.469459 0.433700 0.0310 Uiso
H2 H 0.405468 0.504132 0.326597 0.0310 Uiso
H4 H 0.379350 0.625354 0.171758 0.0320 Uiso
H6 H 0.766460 0.922413 0.032636 0.0360 Uiso
H5 H 0.642517 0.975744 0.185558 0.0350 Uiso
H3 H 0.389707 0.846642 0.338968 0.0300 Uiso
C9 C 1.0651(5) 0.22708(15) 0.29407(16) 0.0235 Uani
C7 C 0.8718(5) 0.32052(16) 0.31484(16) 0.0240 Uani
N4 N 0.7360(4) 0.41101(14) 0.23818(13) 0.0250 Uani
C11 C 0.7835(5) 0.41007(17) 0.13594(16) 0.0270 Uani
C12 C 0.9626(6) 0.32037(18) 0.10681(17) 0.0295 Uani
C10 C 1.1040(5) 0.22786(17) 0.18712(17) 0.0267 Uani
C8 C 1.2344(5) 0.12904(15) 0.38050(16) 0.0238 Uani
O2 O 1.3960(4) 0.04808(11) 0.35577(12) 0.0287 Uani
N3 N 1.2132(5) 0.13388(14) 0.48136(14) 0.0269 Uani
H7 H 1.313564 0.079690 0.531926 0.0320 Uiso
H8 H 1.099102 0.191185 0.495826 0.0320 Uiso
H9 H 0.835831 0.319527 0.386349 0.0290 Uiso
H11 H 0.691756 0.472834 0.081574 0.0320 Uiso
H12 H 0.986864 0.322479 0.034831 0.0350 Uiso
H10 H 1.224488 0.166413 0.169806 0.0320 Uiso
loop_
_atom_site_aniso_label
_atom_site_aniso_U_11
_atom_site_aniso_U_22
_atom_site_aniso_U_33
_atom_site_aniso_U_23
_atom_site_aniso_U_13
_atom_site_aniso_U_12
O1 0.0329(8) 0.0237(7) 0.0230(7) -0.0111(5) 0.0012(6) 0.0013(5)
N1 0.0331(9) 0.0213(8) 0.0231(8) -0.0097(6) 0.0041(6) -0.0005(6)
N2 0.0368(10) 0.0296(9) 0.0248(9) -0.0092(7) 0.0008(7) 0.0030(7)
C1 0.0244(9) 0.0225(9) 0.0234(9) -0.0097(7) -0.0035(7) 0.0025(7)
C2 0.0277(9) 0.0243(9) 0.0259(10) -0.0111(8) -0.0022(7) 0.0012(7)
C3 0.0242(9) 0.0230(9) 0.0234(9) -0.0107(7) -0.0041(7) 0.0016(7)
C4 0.0326(10) 0.0238(9) 0.0258(10) -0.0105(8) -0.0020(8) 0.0022(8)
C5 0.0284(10) 0.0239(9) 0.0342(11) -0.0087(8) -0.0033(8) -0.0002(8)
C6 0.0288(10) 0.0278(10) 0.0289(10) -0.0036(8) 0.0017(8) 0.0016(8)
O2 0.0356(8) 0.0237(7) 0.0291(8) -0.0128(6) -0.0024(6) 0.0045(6)
N3 0.0332(9) 0.0223(8) 0.0256(9) -0.0094(7) -0.0034(7) 0.0051(7)
N4 0.0277(8) 0.0241(8) 0.0252(8) -0.0108(7) -0.0023(6) 0.0009(6)
C7 0.0271(9) 0.0237(9) 0.0231(9) -0.0104(7) -0.0011(7) -0.0006(7)
C8 0.0243(9) 0.0213(9) 0.0275(10) -0.0102(8) -0.0007(7) -0.0015(7)
C9 0.0250(9) 0.0219(9) 0.0260(10) -0.0111(8) 0.0001(7) -0.0022(7)
C10 0.0280(10) 0.0284(10) 0.0279(10) -0.0155(8) 0.0003(7) 0.0002(7)
C11 0.0295(10) 0.0265(9) 0.0247(10) -0.0082(8) -0.0031(8) 0.0014(8)
C12 0.0317(10) 0.0352(11) 0.0250(10) -0.0152(8) 0.0001(8) 0.0005(8)

#END
